<?xml version="1.0" encoding="UTF-8"?>
<!DOCTYPE network SYSTEM "http://www.matsim.org/files/dtd/network_v1.dtd">
<network>

<!-- ====================================================================== -->

	<nodes>
		<node id="1" x="0" y="0" />
		<node id="2" x="0" y="1" />
		<node id="3" x="0" y="2" />
		<node id="4" x="1" y="0" />
		<node id="5" x="1" y="1" />
		<node id="6" x="1" y="2" />
		<node id="7" x="2" y="0" />
		<node id="8" x="2" y="1" />
		<node id="9" x="2" y="2" />
	</nodes>

<!-- ====================================================================== -->

	<links capperiod="01:00:00" effectivecellsize="7.5" effectivelanewidth="3.75">
		<link id="1" from="1" to="2" length="1" freespeed="12.5" capacity="600.0" permlanes="1.0" modes="car" />
		<link id="2" from="2" to="3" length="1" freespeed="12.5" capacity="600.0" permlanes="1.0" modes="car" />
		<link id="3" from="3" to="6" length="1" freespeed="12.5" capacity="600.0" permlanes="1.0" modes="car" />
		<link id="4" from="6" to="9" length="1" freespeed="12.5" capacity="600.0" permlanes="1.0" modes="car" />
		<link id="5" from="9" to="8" length="1" freespeed="12.5" capacity="600.0" permlanes="1.0" modes="car" />
		<link id="6" from="8" to="7" length="1" freespeed="12.5" capacity="600.0" permlanes="1.0" modes="car" />
		<link id="7" from="7" to="4" length="1" freespeed="12.5" capacity="600.0" permlanes="1.0" modes="car" />
		<link id="8" from="4" to="1" length="1" freespeed="12.5" capacity="600.0" permlanes="1.0" modes="car" />
		<link id="9" from="2" to="5" length="1" freespeed="12.5" capacity="600.0" permlanes="1.0" modes="car" />
		<link id="10" from="5" to="8" length="1" freespeed="12.5" capacity="600.0" permlanes="1.0" modes="car" />
		<link id="11" from="6" to="5" length="1" freespeed="12.5" capacity="600.0" permlanes="1.0" modes="car" />
		<link id="12" from="5" to="4" length="1" freespeed="12.5" capacity="600.0" permlanes="1.0" modes="car" />
	</links>

<!-- ====================================================================== -->

</network>
