<?xml version="1.0" encoding="utf-8"?>
<!DOCTYPE population SYSTEM "http://www.matsim.org/files/dtd/population_v6.dtd">

<population>



<!-- ====================================================================== -->

	<person id="1">
		<attributes>
			<attribute name="employed" class="java.lang.Boolean" >false</attribute>
		</attributes>
		<plan score="62.32238084057699" selected="no">
			<activity type="h" link="1112" x="890.0" y="685.0" end_time="07:18:16" >
			</activity>
			<leg mode="transit_walk" trav_time="00:10:21">
				<route type="generic" start_link="1112" end_link="11" trav_time="00:10:21" distance="518.0871065757186"></route>
			</leg>
			<activity type="pt interaction" link="11" x="1050.0" y="1050.0" max_dur="00:00:00" >
			</activity>
			<leg mode="pt" trav_time="00:04:42">
				<route type="experimentalPt1" start_link="11" end_link="12" trav_time="00:04:42" distance="2400.0">PT1===1===Blue Line===1to3===2a</route>
			</leg>
			<activity type="pt interaction" link="12" x="2050.0" y="2940.0" max_dur="00:00:00" >
			</activity>
			<leg mode="transit_walk" trav_time="00:07:38">
				<route type="generic" start_link="12" end_link="2223" trav_time="00:07:38" distance="382.2707417524914"></route>
			</leg>
			<activity type="w" link="2223" x="1802.0" y="2782.0" end_time="17:43:36" >
			</activity>
			<leg mode="transit_walk" trav_time="00:07:56">
				<route type="generic" start_link="2223" end_link="32" trav_time="00:07:56" distance="396.84722501234654"></route>
			</leg>
			<activity type="pt interaction" link="32" x="2050.0" y="2960.0" max_dur="00:00:00" >
			</activity>
			<leg mode="pt" trav_time="00:07:27">
				<route type="experimentalPt1" start_link="32" end_link="11" trav_time="00:07:27" distance="2500.0">PT1===2b===Blue Line===3to1===1</route>
			</leg>
			<activity type="pt interaction" link="11" x="1050.0" y="1050.0" max_dur="00:00:00" >
			</activity>
			<leg mode="transit_walk" trav_time="00:10:21">
				<route type="generic" start_link="11" end_link="1112" trav_time="00:10:21" distance="518.0871065757186"></route>
			</leg>
			<activity type="h" link="1112" x="890.0" y="685.0" >
			</activity>
		</plan>

		<plan score="70.80708851344838" selected="no">
			<activity type="h" link="1112" x="890.0" y="685.0" end_time="07:18:16" >
			</activity>
			<leg mode="transit_walk" trav_time="00:10:21">
				<route type="generic" start_link="1112" end_link="11" trav_time="00:10:21" distance="518.0871065757186"></route>
			</leg>
			<activity type="pt interaction" link="11" x="1050.0" y="1050.0" max_dur="00:00:00" >
			</activity>
			<leg mode="pt" trav_time="00:04:42">
				<route type="experimentalPt1" start_link="11" end_link="12" trav_time="00:04:42" distance="2400.0">PT1===1===Blue Line===1to3===2a</route>
			</leg>
			<activity type="pt interaction" link="12" x="2050.0" y="2940.0" max_dur="00:00:00" >
			</activity>
			<leg mode="transit_walk" trav_time="00:07:38">
				<route type="generic" start_link="12" end_link="2223" trav_time="00:07:38" distance="382.2707417524914"></route>
			</leg>
			<activity type="w" link="2223" x="1802.0" y="2782.0" end_time="17:43:36" >
			</activity>
			<leg mode="transit_walk" trav_time="00:07:56">
				<route type="generic" start_link="2223" end_link="32" trav_time="00:07:56" distance="396.84722501234654"></route>
			</leg>
			<activity type="pt interaction" link="32" x="2050.0" y="2960.0" max_dur="00:00:00" >
			</activity>
			<leg mode="pt" trav_time="00:07:27">
				<route type="experimentalPt1" start_link="32" end_link="11" trav_time="00:07:27" distance="2500.0">PT1===2b===Blue Line===3to1===1</route>
			</leg>
			<activity type="pt interaction" link="11" x="1050.0" y="1050.0" max_dur="00:00:00" >
			</activity>
			<leg mode="transit_walk" trav_time="00:10:21">
				<route type="generic" start_link="11" end_link="1112" trav_time="00:10:21" distance="518.0871065757186"></route>
			</leg>
			<activity type="h" link="1112" x="890.0" y="685.0" >
			</activity>
		</plan>

		<plan score="60.254568295987376" selected="no">
			<activity type="h" link="1112" x="890.0" y="685.0" end_time="07:18:16" >
			</activity>
			<leg mode="transit_walk" trav_time="00:10:21">
				<route type="generic" start_link="1112" end_link="11" trav_time="00:10:21" distance="518.0871065757186"></route>
			</leg>
			<activity type="pt interaction" link="11" x="1050.0" y="1050.0" max_dur="00:00:00" >
			</activity>
			<leg mode="pt" trav_time="00:04:42">
				<route type="experimentalPt1" start_link="11" end_link="12" trav_time="00:04:42" distance="2400.0">PT1===1===Blue Line===1to3===2a</route>
			</leg>
			<activity type="pt interaction" link="12" x="2050.0" y="2940.0" max_dur="00:00:00" >
			</activity>
			<leg mode="transit_walk" trav_time="00:07:38">
				<route type="generic" start_link="12" end_link="2223" trav_time="00:07:38" distance="382.2707417524914"></route>
			</leg>
			<activity type="w" link="2223" x="1802.0" y="2782.0" end_time="17:43:36" >
			</activity>
			<leg mode="transit_walk" trav_time="00:07:56">
				<route type="generic" start_link="2223" end_link="32" trav_time="00:07:56" distance="396.84722501234654"></route>
			</leg>
			<activity type="pt interaction" link="32" x="2050.0" y="2960.0" max_dur="00:00:00" >
			</activity>
			<leg mode="pt" trav_time="00:07:27">
				<route type="experimentalPt1" start_link="32" end_link="11" trav_time="00:07:27" distance="2500.0">PT1===2b===Blue Line===3to1===1</route>
			</leg>
			<activity type="pt interaction" link="11" x="1050.0" y="1050.0" max_dur="00:00:00" >
			</activity>
			<leg mode="transit_walk" trav_time="00:10:21">
				<route type="generic" start_link="11" end_link="1112" trav_time="00:10:21" distance="518.0871065757186"></route>
			</leg>
			<activity type="h" link="1112" x="890.0" y="685.0" >
			</activity>
		</plan>

		<plan score="57.9818318029992" selected="no">
			<activity type="h" link="1112" x="890.0" y="685.0" end_time="07:18:16" >
			</activity>
			<leg mode="transit_walk" trav_time="00:10:21">
				<route type="generic" start_link="1112" end_link="11" trav_time="00:10:21" distance="518.0871065757186"></route>
			</leg>
			<activity type="pt interaction" link="11" x="1050.0" y="1050.0" max_dur="00:00:00" >
			</activity>
			<leg mode="pt" trav_time="00:04:42">
				<route type="experimentalPt1" start_link="11" end_link="12" trav_time="00:04:42" distance="2400.0">PT1===1===Blue Line===1to3===2a</route>
			</leg>
			<activity type="pt interaction" link="12" x="2050.0" y="2940.0" max_dur="00:00:00" >
			</activity>
			<leg mode="transit_walk" trav_time="00:07:38">
				<route type="generic" start_link="12" end_link="2223" trav_time="00:07:38" distance="382.2707417524914"></route>
			</leg>
			<activity type="w" link="2223" x="1802.0" y="2782.0" end_time="17:43:36" >
			</activity>
			<leg mode="transit_walk" trav_time="00:07:56">
				<route type="generic" start_link="2223" end_link="32" trav_time="00:07:56" distance="396.84722501234654"></route>
			</leg>
			<activity type="pt interaction" link="32" x="2050.0" y="2960.0" max_dur="00:00:00" >
			</activity>
			<leg mode="pt" trav_time="00:07:27">
				<route type="experimentalPt1" start_link="32" end_link="11" trav_time="00:07:27" distance="2500.0">PT1===2b===Blue Line===3to1===1</route>
			</leg>
			<activity type="pt interaction" link="11" x="1050.0" y="1050.0" max_dur="00:00:00" >
			</activity>
			<leg mode="transit_walk" trav_time="00:10:21">
				<route type="generic" start_link="11" end_link="1112" trav_time="00:10:21" distance="518.0871065757186"></route>
			</leg>
			<activity type="h" link="1112" x="890.0" y="685.0" >
			</activity>
		</plan>

		<plan score="57.81626131587955" selected="no">
			<activity type="h" link="1112" x="890.0" y="685.0" end_time="07:18:16" >
			</activity>
			<leg mode="transit_walk" trav_time="00:10:21">
				<route type="generic" start_link="1112" end_link="11" trav_time="00:10:21" distance="518.0871065757186"></route>
			</leg>
			<activity type="pt interaction" link="11" x="1050.0" y="1050.0" max_dur="00:00:00" >
			</activity>
			<leg mode="pt" trav_time="00:04:42">
				<route type="experimentalPt1" start_link="11" end_link="12" trav_time="00:04:42" distance="2400.0">PT1===1===Blue Line===1to3===2a</route>
			</leg>
			<activity type="pt interaction" link="12" x="2050.0" y="2940.0" max_dur="00:00:00" >
			</activity>
			<leg mode="transit_walk" trav_time="00:07:38">
				<route type="generic" start_link="12" end_link="2223" trav_time="00:07:38" distance="382.2707417524914"></route>
			</leg>
			<activity type="w" link="2223" x="1802.0" y="2782.0" end_time="17:43:36" >
			</activity>
			<leg mode="transit_walk" trav_time="00:07:56">
				<route type="generic" start_link="2223" end_link="32" trav_time="00:07:56" distance="396.84722501234654"></route>
			</leg>
			<activity type="pt interaction" link="32" x="2050.0" y="2960.0" max_dur="00:00:00" >
			</activity>
			<leg mode="pt" trav_time="00:07:27">
				<route type="experimentalPt1" start_link="32" end_link="11" trav_time="00:07:27" distance="2500.0">PT1===2b===Blue Line===3to1===1</route>
			</leg>
			<activity type="pt interaction" link="11" x="1050.0" y="1050.0" max_dur="00:00:00" >
			</activity>
			<leg mode="transit_walk" trav_time="00:10:21">
				<route type="generic" start_link="11" end_link="1112" trav_time="00:10:21" distance="518.0871065757186"></route>
			</leg>
			<activity type="h" link="1112" x="890.0" y="685.0" >
			</activity>
		</plan>

		<plan score="45.22003691313027" selected="yes">
			<activity type="h" link="1112" x="890.0" y="685.0" end_time="07:18:16" >
			</activity>
			<leg mode="transit_walk" trav_time="00:10:21">
				<route type="generic" start_link="1112" end_link="11" trav_time="00:10:21" distance="518.0871065757186"></route>
			</leg>
			<activity type="pt interaction" link="11" x="1050.0" y="1050.0" max_dur="00:00:00" >
			</activity>
			<leg mode="pt" trav_time="00:04:42">
				<route type="experimentalPt1" start_link="11" end_link="12" trav_time="00:04:42" distance="2400.0">PT1===1===Blue Line===1to3===2a</route>
			</leg>
			<activity type="pt interaction" link="12" x="2050.0" y="2940.0" max_dur="00:00:00" >
			</activity>
			<leg mode="transit_walk" trav_time="00:07:38">
				<route type="generic" start_link="12" end_link="2223" trav_time="00:07:38" distance="382.2707417524914"></route>
			</leg>
			<activity type="w" link="2223" x="1802.0" y="2782.0" end_time="17:43:36" >
			</activity>
			<leg mode="transit_walk" trav_time="00:07:56">
				<route type="generic" start_link="2223" end_link="32" trav_time="00:07:56" distance="396.84722501234654"></route>
			</leg>
			<activity type="pt interaction" link="32" x="2050.0" y="2960.0" max_dur="00:00:00" >
			</activity>
			<leg mode="pt" trav_time="00:07:27">
				<route type="experimentalPt1" start_link="32" end_link="11" trav_time="00:07:27" distance="2500.0">PT1===2b===Blue Line===3to1===1</route>
			</leg>
			<activity type="pt interaction" link="11" x="1050.0" y="1050.0" max_dur="00:00:00" >
			</activity>
			<leg mode="transit_walk" trav_time="00:10:21">
				<route type="generic" start_link="11" end_link="1112" trav_time="00:10:21" distance="518.0871065757186"></route>
			</leg>
			<activity type="h" link="1112" x="890.0" y="685.0" >
			</activity>
		</plan>

	</person>

<!-- ====================================================================== -->

	<person id="10">
		<attributes>
			<attribute name="employed" class="java.lang.Boolean" >false</attribute>
		</attributes>
		<plan score="122.80463939436066" selected="no">
			<activity type="h" link="1112" x="689.0" y="703.0" end_time="07:51:49" >
			</activity>
			<leg mode="car" dep_time="07:33:16" trav_time="00:05:03">
				<route type="links" start_link="1112" end_link="3141" trav_time="00:05:03" distance="3600.0">1112 1222 2221 2131 3141</route>
			</leg>
			<activity type="w" link="3141" x="3869.0" y="1093.0" end_time="17:22:23" >
			</activity>
			<leg mode="car" dep_time="17:47:05" trav_time="00:00:00">
				<route type="links" start_link="3141" end_link="3141" trav_time="00:00:00" distance="0.0">3141</route>
			</leg>
			<activity type="s" link="3141" x="3605.0" y="735.0" end_time="17:45:35" >
			</activity>
			<leg mode="car" dep_time="17:54:27" trav_time="00:05:16">
				<route type="links" start_link="3141" end_link="1112" trav_time="00:05:16" distance="3600.0">3141 4131 3121 2111 1112</route>
			</leg>
			<activity type="h" link="1112" x="689.0" y="703.0" >
			</activity>
		</plan>

		<plan score="131.33853394861418" selected="no">
			<activity type="h" link="1112" x="689.0" y="703.0" end_time="07:51:49" >
			</activity>
			<leg mode="car" dep_time="07:33:16" trav_time="00:05:03">
				<route type="links" start_link="1112" end_link="3141" trav_time="00:05:03" distance="3600.0">1112 1222 2221 2131 3141</route>
			</leg>
			<activity type="w" link="3141" x="3869.0" y="1093.0" end_time="17:22:23" >
			</activity>
			<leg mode="car" dep_time="17:47:05" trav_time="00:00:00">
				<route type="links" start_link="3141" end_link="3141" trav_time="00:00:00" distance="0.0">3141</route>
			</leg>
			<activity type="s" link="3141" x="3605.0" y="735.0" end_time="17:45:35" >
			</activity>
			<leg mode="car" dep_time="17:54:27" trav_time="00:05:16">
				<route type="links" start_link="3141" end_link="1112" trav_time="00:05:16" distance="3600.0">3141 4131 3121 2111 1112</route>
			</leg>
			<activity type="h" link="1112" x="689.0" y="703.0" >
			</activity>
		</plan>

		<plan score="120.81192435814728" selected="no">
			<activity type="h" link="1112" x="689.0" y="703.0" end_time="07:51:49" >
			</activity>
			<leg mode="car" dep_time="07:33:16" trav_time="00:05:03">
				<route type="links" start_link="1112" end_link="3141" trav_time="00:05:03" distance="3600.0">1112 1222 2221 2131 3141</route>
			</leg>
			<activity type="w" link="3141" x="3869.0" y="1093.0" end_time="17:22:23" >
			</activity>
			<leg mode="car" dep_time="17:47:05" trav_time="00:00:00">
				<route type="links" start_link="3141" end_link="3141" trav_time="00:00:00" distance="0.0">3141</route>
			</leg>
			<activity type="s" link="3141" x="3605.0" y="735.0" end_time="17:45:35" >
			</activity>
			<leg mode="car" dep_time="17:54:27" trav_time="00:05:16">
				<route type="links" start_link="3141" end_link="1112" trav_time="00:05:16" distance="3600.0">3141 4131 3121 2111 1112</route>
			</leg>
			<activity type="h" link="1112" x="689.0" y="703.0" >
			</activity>
		</plan>

		<plan score="118.46255340618852" selected="no">
			<activity type="h" link="1112" x="689.0" y="703.0" end_time="07:51:49" >
			</activity>
			<leg mode="car" dep_time="07:33:16" trav_time="00:05:03">
				<route type="links" start_link="1112" end_link="3141" trav_time="00:05:03" distance="3600.0">1112 1222 2221 2131 3141</route>
			</leg>
			<activity type="w" link="3141" x="3869.0" y="1093.0" end_time="17:22:23" >
			</activity>
			<leg mode="car" dep_time="17:47:05" trav_time="00:00:00">
				<route type="links" start_link="3141" end_link="3141" trav_time="00:00:00" distance="0.0">3141</route>
			</leg>
			<activity type="s" link="3141" x="3605.0" y="735.0" end_time="17:45:35" >
			</activity>
			<leg mode="car" dep_time="17:54:27" trav_time="00:05:16">
				<route type="links" start_link="3141" end_link="1112" trav_time="00:05:16" distance="3600.0">3141 4131 3121 2111 1112</route>
			</leg>
			<activity type="h" link="1112" x="689.0" y="703.0" >
			</activity>
		</plan>

		<plan score="117.97576464790117" selected="no">
			<activity type="h" link="1112" x="689.0" y="703.0" end_time="07:51:49" >
			</activity>
			<leg mode="car" dep_time="07:33:16" trav_time="00:05:03">
				<route type="links" start_link="1112" end_link="3141" trav_time="00:05:03" distance="3600.0">1112 1222 2221 2131 3141</route>
			</leg>
			<activity type="w" link="3141" x="3869.0" y="1093.0" end_time="17:22:23" >
			</activity>
			<leg mode="car" dep_time="17:47:05" trav_time="00:00:00">
				<route type="links" start_link="3141" end_link="3141" trav_time="00:00:00" distance="0.0">3141</route>
			</leg>
			<activity type="s" link="3141" x="3605.0" y="735.0" end_time="17:45:35" >
			</activity>
			<leg mode="car" dep_time="17:54:27" trav_time="00:05:16">
				<route type="links" start_link="3141" end_link="1112" trav_time="00:05:16" distance="3600.0">3141 4131 3121 2111 1112</route>
			</leg>
			<activity type="h" link="1112" x="689.0" y="703.0" >
			</activity>
		</plan>

		<plan score="105.46618946667635" selected="yes">
			<activity type="h" link="1112" x="689.0" y="703.0" end_time="07:51:49" >
			</activity>
			<leg mode="car" dep_time="07:33:16" trav_time="00:05:03">
				<route type="links" start_link="1112" end_link="3141" trav_time="00:05:03" distance="3600.0">1112 1222 2221 2131 3141</route>
			</leg>
			<activity type="w" link="3141" x="3869.0" y="1093.0" end_time="17:22:23" >
			</activity>
			<leg mode="car" dep_time="17:47:05" trav_time="00:00:00">
				<route type="links" start_link="3141" end_link="3141" trav_time="00:00:00" distance="0.0">3141</route>
			</leg>
			<activity type="s" link="3141" x="3605.0" y="735.0" end_time="17:45:35" >
			</activity>
			<leg mode="car" dep_time="17:54:27" trav_time="00:05:16">
				<route type="links" start_link="3141" end_link="1112" trav_time="00:05:16" distance="3600.0">3141 4131 3121 2111 1112</route>
			</leg>
			<activity type="h" link="1112" x="689.0" y="703.0" >
			</activity>
		</plan>

	</person>

<!-- ====================================================================== -->

	<person id="100">
		<attributes>
			<attribute name="employed" class="java.lang.Boolean" >false</attribute>
		</attributes>
		<plan score="139.9869315764378" selected="no" type="pt">
			<activity type="h" link="1112" x="811.0" y="1440.0" end_time="07:03:59" >
			</activity>
			<leg mode="car" dep_time="07:03:59" trav_time="00:03:22">
				<route type="links" start_link="1112" end_link="2324" trav_time="00:03:22" distance="2400.0">1112 1213 1323 2324</route>
			</leg>
			<activity type="w" link="2324" x="1695.0" y="3329.0" end_time="17:41:28" >
			</activity>
			<leg mode="car" dep_time="17:41:28" trav_time="00:06:52">
				<route type="links" start_link="2324" end_link="1112" trav_time="00:06:52" distance="4800.0">2324 2423 2322 2221 2111 1112</route>
			</leg>
			<activity type="h" link="1112" x="811.0" y="1440.0" >
			</activity>
		</plan>

		<plan score="70.4291415827988" selected="no" type="flagged">
			<activity type="h" link="1112" x="811.0" y="1440.0" end_time="07:03:59" >
			</activity>
			<leg mode="car" dep_time="07:03:59" trav_time="00:03:22">
				<route type="links" start_link="1112" end_link="2324" trav_time="00:03:22" distance="3600.0">1112 1213 1323 2324</route>
			</leg>
			<activity type="w" link="2324" x="1695.0" y="3329.0" end_time="17:41:28" >
			</activity>
			<leg mode="car" dep_time="17:41:28" trav_time="00:06:44">
				<route type="links" start_link="2324" end_link="1112" trav_time="00:06:44" distance="6000.0">2324 2423 2322 2212 1211 1112</route>
			</leg>
			<activity type="h" link="1112" x="811.0" y="1440.0" >
			</activity>
		</plan>

		<plan score="62.650490658700974" selected="no" type="flagged">
			<activity type="h" link="1112" x="811.0" y="1440.0" end_time="07:03:59" >
			</activity>
			<leg mode="car" dep_time="07:03:59" trav_time="00:03:22">
				<route type="links" start_link="1112" end_link="2324" trav_time="00:03:22" distance="2400.0">1112 1213 1323 2324</route>
			</leg>
			<activity type="w" link="2324" x="1695.0" y="3329.0" end_time="17:41:28" >
			</activity>
			<leg mode="car" dep_time="17:41:28" trav_time="00:06:52">
				<route type="links" start_link="2324" end_link="1112" trav_time="00:06:52" distance="4800.0">2324 2423 2322 2221 2111 1112</route>
			</leg>
			<activity type="h" link="1112" x="811.0" y="1440.0" >
			</activity>
		</plan>

		<plan score="58.96961099254747" selected="no" type="flagged">
			<activity type="h" link="1112" x="811.0" y="1440.0" end_time="07:03:59" >
			</activity>
			<leg mode="car" dep_time="07:03:59" trav_time="00:03:22">
				<route type="links" start_link="1112" end_link="2324" trav_time="00:03:22" distance="2400.0">1112 1213 1323 2324</route>
			</leg>
			<activity type="w" link="2324" x="1695.0" y="3329.0" end_time="17:41:28" >
			</activity>
			<leg mode="car" dep_time="17:41:28" trav_time="00:06:52">
				<route type="links" start_link="2324" end_link="1112" trav_time="00:06:52" distance="4800.0">2324 2423 2322 2221 2111 1112</route>
			</leg>
			<activity type="h" link="1112" x="811.0" y="1440.0" >
			</activity>
		</plan>

		<plan score="58.881587304010736" selected="no" type="flagged">
			<activity type="h" link="1112" x="811.0" y="1440.0" end_time="07:03:59" >
			</activity>
			<leg mode="car" dep_time="07:03:59" trav_time="00:03:22">
				<route type="links" start_link="1112" end_link="2324" trav_time="00:03:22" distance="2400.0">1112 1213 1323 2324</route>
			</leg>
			<activity type="w" link="2324" x="1695.0" y="3329.0" end_time="17:41:28" >
			</activity>
			<leg mode="car" dep_time="17:41:28" trav_time="00:06:52">
				<route type="links" start_link="2324" end_link="1112" trav_time="00:06:52" distance="4800.0">2324 2423 2322 2221 2111 1112</route>
			</leg>
			<activity type="h" link="1112" x="811.0" y="1440.0" >
			</activity>
		</plan>

		<plan score="49.11778035156031" selected="yes" type="flagged">
			<activity type="h" link="1112" x="811.0" y="1440.0" end_time="07:03:59" >
			</activity>
			<leg mode="car" dep_time="07:03:59" trav_time="00:03:22">
				<route type="links" start_link="1112" end_link="2324" trav_time="00:03:22" distance="2400.0">1112 1213 1323 2324</route>
			</leg>
			<activity type="w" link="2324" x="1695.0" y="3329.0" end_time="17:41:28" >
			</activity>
			<leg mode="car" dep_time="17:41:28" trav_time="00:06:52">
				<route type="links" start_link="2324" end_link="1112" trav_time="00:06:52" distance="4800.0">2324 2423 2322 2221 2111 1112</route>
			</leg>
			<activity type="h" link="1112" x="811.0" y="1440.0" >
			</activity>
		</plan>

	</person>

<!-- ====================================================================== -->

	<person id="101">
		<attributes>
			<attribute name="employed" class="java.lang.Boolean" >false</attribute>
		</attributes>
		<plan score="63.67928268636536" selected="no">
			<activity type="h" link="1112" x="768.0" y="1343.0" end_time="07:18:23" >
			</activity>
			<leg mode="transit_walk" trav_time="00:10:34">
				<route type="generic" start_link="1112" end_link="11" trav_time="00:10:34" distance="528.6590299994884"></route>
			</leg>
			<activity type="pt interaction" link="11" x="1050.0" y="1050.0" max_dur="00:00:00" >
			</activity>
			<leg mode="pt" trav_time="00:04:22">
				<route type="experimentalPt1" start_link="11" end_link="12" trav_time="00:04:22" distance="2400.0">PT1===1===Blue Line===1to3===2a</route>
			</leg>
			<activity type="pt interaction" link="12" x="2050.0" y="2940.0" max_dur="00:00:00" >
			</activity>
			<leg mode="transit_walk" trav_time="00:04:55">
				<route type="generic" start_link="12" end_link="2333" trav_time="00:04:55" distance="246.09861844390755"></route>
			</leg>
			<activity type="w" link="2333" x="2216.0" y="3031.0" end_time="17:40:42" >
			</activity>
			<leg mode="transit_walk" trav_time="00:04:41">
				<route type="generic" start_link="2333" end_link="32" trav_time="00:04:41" distance="234.71031080887778"></route>
			</leg>
			<activity type="pt interaction" link="32" x="2050.0" y="2960.0" max_dur="00:00:00" >
			</activity>
			<leg mode="pt" trav_time="00:03:36">
				<route type="experimentalPt1" start_link="32" end_link="11" trav_time="00:03:36" distance="2500.0">PT1===2b===Blue Line===3to1===1</route>
			</leg>
			<activity type="pt interaction" link="11" x="1050.0" y="1050.0" max_dur="00:00:00" >
			</activity>
			<leg mode="transit_walk" trav_time="00:10:34">
				<route type="generic" start_link="11" end_link="1112" trav_time="00:10:34" distance="528.6590299994884"></route>
			</leg>
			<activity type="h" link="1112" x="768.0" y="1343.0" >
			</activity>
		</plan>

		<plan score="65.58579320799346" selected="no">
			<activity type="h" link="1112" x="768.0" y="1343.0" end_time="07:40:29" >
			</activity>
			<leg mode="transit_walk" trav_time="00:10:34">
				<route type="generic" start_link="1112" end_link="11" trav_time="00:10:34" distance="528.6590299994884"></route>
			</leg>
			<activity type="pt interaction" link="11" x="1050.0" y="1050.0" max_dur="00:00:00" >
			</activity>
			<leg mode="pt" trav_time="00:12:16">
				<route type="experimentalPt1" start_link="11" end_link="12" trav_time="00:12:16" distance="2400.0">PT1===1===Blue Line===1to3===2a</route>
			</leg>
			<activity type="pt interaction" link="12" x="2050.0" y="2940.0" max_dur="00:00:00" >
			</activity>
			<leg mode="transit_walk" trav_time="00:04:55">
				<route type="generic" start_link="12" end_link="2333" trav_time="00:04:55" distance="246.09861844390755"></route>
			</leg>
			<activity type="w" link="2333" x="2216.0" y="3031.0" end_time="17:51:33" >
			</activity>
			<leg mode="transit_walk" trav_time="00:04:41">
				<route type="generic" start_link="2333" end_link="32" trav_time="00:04:41" distance="234.71031080887778"></route>
			</leg>
			<activity type="pt interaction" link="32" x="2050.0" y="2960.0" max_dur="00:00:00" >
			</activity>
			<leg mode="pt" trav_time="00:12:45">
				<route type="experimentalPt1" start_link="32" end_link="11" trav_time="00:12:45" distance="2500.0">PT1===2b===Blue Line===3to1===1</route>
			</leg>
			<activity type="pt interaction" link="11" x="1050.0" y="1050.0" max_dur="00:00:00" >
			</activity>
			<leg mode="transit_walk" trav_time="00:10:34">
				<route type="generic" start_link="11" end_link="1112" trav_time="00:10:34" distance="528.6590299994884"></route>
			</leg>
			<activity type="h" link="1112" x="768.0" y="1343.0" >
			</activity>
		</plan>

		<plan score="61.5531555525502" selected="no">
			<activity type="h" link="1112" x="768.0" y="1343.0" end_time="07:18:23" >
			</activity>
			<leg mode="transit_walk" trav_time="00:10:34">
				<route type="generic" start_link="1112" end_link="11" trav_time="00:10:34" distance="528.6590299994884"></route>
			</leg>
			<activity type="pt interaction" link="11" x="1050.0" y="1050.0" max_dur="00:00:00" >
			</activity>
			<leg mode="pt" trav_time="00:04:22">
				<route type="experimentalPt1" start_link="11" end_link="12" trav_time="00:04:22" distance="2400.0">PT1===1===Blue Line===1to3===2a</route>
			</leg>
			<activity type="pt interaction" link="12" x="2050.0" y="2940.0" max_dur="00:00:00" >
			</activity>
			<leg mode="transit_walk" trav_time="00:04:55">
				<route type="generic" start_link="12" end_link="2333" trav_time="00:04:55" distance="246.09861844390755"></route>
			</leg>
			<activity type="w" link="2333" x="2216.0" y="3031.0" end_time="17:40:42" >
			</activity>
			<leg mode="transit_walk" trav_time="00:04:41">
				<route type="generic" start_link="2333" end_link="32" trav_time="00:04:41" distance="234.71031080887778"></route>
			</leg>
			<activity type="pt interaction" link="32" x="2050.0" y="2960.0" max_dur="00:00:00" >
			</activity>
			<leg mode="pt" trav_time="00:03:36">
				<route type="experimentalPt1" start_link="32" end_link="11" trav_time="00:03:36" distance="2500.0">PT1===2b===Blue Line===3to1===1</route>
			</leg>
			<activity type="pt interaction" link="11" x="1050.0" y="1050.0" max_dur="00:00:00" >
			</activity>
			<leg mode="transit_walk" trav_time="00:10:34">
				<route type="generic" start_link="11" end_link="1112" trav_time="00:10:34" distance="528.6590299994884"></route>
			</leg>
			<activity type="h" link="1112" x="768.0" y="1343.0" >
			</activity>
		</plan>

		<plan score="61.855226788581206" selected="no">
			<activity type="h" link="1112" x="768.0" y="1343.0" end_time="07:18:23" >
			</activity>
			<leg mode="transit_walk" trav_time="00:10:34">
				<route type="generic" start_link="1112" end_link="11" trav_time="00:10:34" distance="528.6590299994884"></route>
			</leg>
			<activity type="pt interaction" link="11" x="1050.0" y="1050.0" max_dur="00:00:00" >
			</activity>
			<leg mode="pt" trav_time="00:04:22">
				<route type="experimentalPt1" start_link="11" end_link="12" trav_time="00:04:22" distance="2400.0">PT1===1===Blue Line===1to3===2a</route>
			</leg>
			<activity type="pt interaction" link="12" x="2050.0" y="2940.0" max_dur="00:00:00" >
			</activity>
			<leg mode="transit_walk" trav_time="00:04:55">
				<route type="generic" start_link="12" end_link="2333" trav_time="00:04:55" distance="246.09861844390755"></route>
			</leg>
			<activity type="w" link="2333" x="2216.0" y="3031.0" end_time="17:40:42" >
			</activity>
			<leg mode="transit_walk" trav_time="00:04:41">
				<route type="generic" start_link="2333" end_link="32" trav_time="00:04:41" distance="234.71031080887778"></route>
			</leg>
			<activity type="pt interaction" link="32" x="2050.0" y="2960.0" max_dur="00:00:00" >
			</activity>
			<leg mode="pt" trav_time="00:03:36">
				<route type="experimentalPt1" start_link="32" end_link="11" trav_time="00:03:36" distance="2500.0">PT1===2b===Blue Line===3to1===1</route>
			</leg>
			<activity type="pt interaction" link="11" x="1050.0" y="1050.0" max_dur="00:00:00" >
			</activity>
			<leg mode="transit_walk" trav_time="00:10:34">
				<route type="generic" start_link="11" end_link="1112" trav_time="00:10:34" distance="528.6590299994884"></route>
			</leg>
			<activity type="h" link="1112" x="768.0" y="1343.0" >
			</activity>
		</plan>

		<plan score="59.0930756717077" selected="no">
			<activity type="h" link="1112" x="768.0" y="1343.0" end_time="07:18:23" >
			</activity>
			<leg mode="transit_walk" trav_time="00:10:34">
				<route type="generic" start_link="1112" end_link="11" trav_time="00:10:34" distance="528.6590299994884"></route>
			</leg>
			<activity type="pt interaction" link="11" x="1050.0" y="1050.0" max_dur="00:00:00" >
			</activity>