<?xml version="1.0" encoding="utf-8"?>
<!DOCTYPE population SYSTEM "http://www.matsim.org/files/dtd/population_v5.dtd">

<population>
	<person id="1" employed="yes">
		<plan selected="yes">
			<act end_time="4:40:00" link="sfpt169321" type="Home" x="-122.307291" y="37.901933"/>
			<leg mode="PEV"><route type="links" start_link="sfpt169321" end_link="sfpt28937" trav_time="1" distance="1">sfpt169321 sfpt28937</route></leg>
			<act end_time="9:22:00" link="sfpt28937" type="Work" x="-122.253733" y="37.879309"/>
			<leg mode="PEV"><route type="links" start_link="sfpt28937" end_link="sfpt169321" trav_time="1" distance="1">sfpt169321 sfpt28937</route></leg>
			<act end_time="14:55:00" link="sfpt169321" type="Home" x="-122.307291" y="37.901933"/>
		</plan>
	</person>
	<person id="2" employed="yes">
		<plan selected="yes">
			<act end_time="6:58:00" link="sfpt169321" type="Home" x="-122.282965" y="37.846351"/>
			<leg mode="PEV"><route type="links" start_link="sfpt169321" end_link="sfpt28937" trav_time="1" distance="1">sfpt169321 sfpt28937</route></leg>
      <!--<act end_time="12:52:00" link="sfpt28937" type="Work" x="-122.278185" y="37.891427"/>-->
			<act end_time="12:52:00" link="sfpt28937" type="Work" x="-122.278637" y="37.890727"/>
			<leg mode="PEV"><route type="links" start_link="sfpt28937" end_link="sfpt169321" trav_time="1" distance="1">sfpt169321 sfpt28937</route></leg>
			<act end_time="17:58:00" link="sfpt169321" type="Home" x="-122.282965" y="37.846351"/>
		</plan>
	</person>
	<person id="3" employed="yes">
		<plan selected="yes">
			<act end_time="7:58:00" link="sfpt169321" type="Home" x="-122.299213" y="37.904606"/>
			<leg mode="PEV"><route type="links" start_link="sfpt169321" end_link="sfpt28937" trav_time="1" distance="1">sfpt169321 sfpt28937</route></leg>
			<act end_time="13:52:00" link="sfpt28937" type="Work" x="-122.268220" y="37.853495"/>
			<leg mode="PEV"><route type="links" start_link="sfpt28937" end_link="sfpt169321" trav_time="1" distance="1">sfpt169321 sfpt28937</route></leg>
			<act end_time="18:58:00" link="sfpt169321" type="Home" x="-122.299213" y="37.904606"/>
		</plan>
	</person>

	<person id="4" employed="yes">

		<plan score="-494.58068848294334" selected="yes">
			<act type="Home" link="sfpt383854" x="574716.528371" y="4170066.75462" end_time="12:59:57" />
			<leg mode="car">
				<route type="links" start_link="sfpt383854" end_link="sfpt124271" trav_time="09:36:20" distance="9225.803524044934">sfpt383854 sfpt124271</route>
			</leg>
			<act type="Shopping" link="sfpt124271" x="573765.992777" y="4173666.39052" end_time="15:49:00" />
			<leg mode="car" dep_time="16:15:32" trav_time="00:49:29">
				<route type="links" start_link="sfpt124271" end_link="sfpt383854" trav_time="00:49:29" distance="4786.023015812122">sfpt124271 sfpt383854</route>
			</leg>
			<act type="Home" link="sfpt383854" x="574716.528371" y="4170066.75462" end_time="18:30:21" />
			<leg mode="car" dep_time="18:27:23" trav_time="11:18:19">
				<route type="links" start_link="sfpt383854" end_link="sfpt383814" trav_time="11:18:19" distance="2258.4553267961014">sfpt383854 sfpt383814</route>
			</leg>
			<act type="Shopping" link="sfpt383814" x="576363.717373" y="4171401.18793" end_time="17:43:26" />
			<leg mode="car" dep_time="18:10:44" trav_time="00:40:13">
				<route type="links" start_link="sfpt383814" end_link="sfpt383854" trav_time="00:40:13" distance="1979.5548159374287">sfpt383814 sfpt383854</route>
			</leg>
			<act type="Home" link="sfpt383854" x="574716.528371" y="4170066.75462" />
		</plan>
	</person>

	<person id="5" employed="yes">
		<plan score="135.2053877027032" selected="yes">
			<act type="Home" link="sfpt346952" x="584310.998702" y="4178543.31954" end_time="05:23:45" />
			<leg mode="car" dep_time="05:24:01" trav_time="00:07:20">
				<route type="links" start_link="sfpt346952" end_link="sfpt204498" trav_time="00:07:20" distance="6289.010796887485">sfpt346952 sfpt346954 sfpt346956 sfpt346958 sfpt346992 sfpt346993 sfpt346994 sfpt346995 sfpt346996 sfpt346997 sfpt346998 sfpt346999 sfpt347000 sfpt347001 sfpt347002 sfpt347003 sfpt347004 sfpt347005 sfpt347006 sfpt347007 sfpt347008 sfpt347009 sfpt347010 sfpt347011 sfpt347012 sfpt347013 sfpt347014 sfpt347015 sfpt347016 sfpt347017 sfpt347018 sfpt347019 sfpt347020 sfpt204486 sfpt204484 sfpt204482 sfpt204480 sfpt204478 sfpt204476 sfpt204474 sfpt204472 sfpt204470 sfpt204468 sfpt204466 sfpt204464 sfpt204462 sfpt204460 sfpt204458 sfpt204456 sfpt204454 sfpt204452 sfpt204450 sfpt204448 sfpt204446 sfpt204444 sfpt204442 sfpt204440 sfpt204438 sfpt204436 sfpt204434 sfpt204432 sfpt204430 sfpt204428 sfpt204426 sfpt204424 sfpt204422 sfpt204420 sfpt204418 sfpt204416 sfpt204414 sfpt204412 sfpt204410 sfpt204408 sfpt204406 sfpt204404 sfpt204402 sfpt204400 sfpt204398 sfpt204396 sfpt204394 sfpt204392 sfpt204390 sfpt204388 sfpt204386 sfpt204384 sfpt204382 sfpt204380 sfpt204378 sfpt204376 sfpt204374 sfpt204372 sfpt204370 sfpt204368 sfpt204366 sfpt204364 sfpt204362 sfpt204360 sfpt204358 sfpt204356 sfpt204354 sfpt204352 sfpt204350 sfpt204348 sfpt204346 sfpt204344 sfpt204342 sfpt204340 sfpt204338 sfpt204336 sfpt204334 sfpt204332 sfpt204330 sfpt204328 sfpt204489 sfpt204490 sfpt204491 sfpt204492 sfpt204493 sfpt204494 sfpt204495 sfpt204496 sfpt204497 sfpt204498</route>
			</leg>
			<act type="Other" link="sfpt204498" x="582994.345144" y="4173770.79454" end_time="07:15:52" />
			<leg mode="car" dep_time="06:50:32" trav_time="00:08:32">
				<route type="links" start_link="sfpt204498" end_link="sfpt346952" trav_time="00:08:32" distance="7139.636894596477">sfpt204498 sfpt204499 sfpt204572 sfpt204573 sfpt204574 sfpt204575 sfpt204576 sfpt204577 sfpt204629 sfpt204311 sfpt204312 sfpt204313 sfpt204314 sfpt204315 sfpt204316 sfpt245530 sfpt245531 sfpt245532 sfpt245533 sfpt245534 sfpt245535 sfpt245536 sfpt245537 sfpt245538 sfpt245539 sfpt245540 sfpt245541 sfpt245542 sfpt245543 sfpt245544 sfpt204327 sfpt204329 sfpt204331 sfpt204333 sfpt204335 sfpt204337 sfpt204339 sfpt204341 sfpt204343 sfpt204345 sfpt204347 sfpt204349 sfpt204351 sfpt204353 sfpt204355 sfpt204357 sfpt204359 sfpt204361 sfpt204363 sfpt204365 sfpt204367 sfpt204369 sfpt204371 sfpt204373 sfpt204375 sfpt204377 sfpt204379 sfpt204381 sfpt204383 sfpt204385 sfpt204387 sfpt204389 sfpt204391 sfpt204393 sfpt204395 sfpt204397 sfpt204399 sfpt204401 sfpt204403 sfpt204405 sfpt204407 sfpt204409 sfpt204411 sfpt204413 sfpt204415 sfpt204417 sfpt204419 sfpt204421 sfpt204423 sfpt204425 sfpt204427 sfpt204429 sfpt204431 sfpt204433 sfpt204435 sfpt204437 sfpt204439 sfpt204441 sfpt204443 sfpt204445 sfpt204447 sfpt204449 sfpt204451 sfpt204453 sfpt204455 sfpt204457 sfpt204459 sfpt204461 sfpt204463 sfpt204465 sfpt204467 sfpt204469 sfpt204471 sfpt204473 sfpt204475 sfpt204477 sfpt204479 sfpt204481 sfpt204483 sfpt204485 sfpt347097 sfpt347098 sfpt347099 sfpt347100 sfpt347101 sfpt347102 sfpt347103 sfpt347104 sfpt347105 sfpt347106 sfpt347107 sfpt347108 sfpt347109 sfpt347110 sfpt347111 sfpt347112 sfpt347113 sfpt347114 sfpt347115 sfpt347116 sfpt347117 sfpt347118 sfpt347119 sfpt347120 sfpt347121 sfpt347122 sfpt347123 sfpt347124 sfpt346959 sfpt346957 sfpt346955 sfpt346953 sfpt346952</route>
			</leg>
			<act type="Home" link="sfpt346952" x="584310.998702" y="4178543.31954" />
		</plan>
	</person>
<!-- ====================================================================== -->

</population>
