<?xml version="1.0" encoding="utf-8"?>
<!DOCTYPE population SYSTEM "http://www.matsim.org/files/dtd/population_v5.dtd">

<population>
	<person id="1" employed="yes">
		<plan selected="yes">
			<act end_time="4:40:00" link="sfpt169321" type="Home" x="-122.307291" y="37.901933"/>
			<leg mode="PEV"><route type="links" start_link="sfpt169321" end_link="sfpt28937" trav_time="1" distance="1">sfpt169321 sfpt28937</route></leg>
			<act end_time="9:22:00" link="sfpt28937" type="Work" x="-122.253733" y="37.879309"/>
		</plan>
	</person>
	<person id="2" employed="yes">
		<plan selected="yes">
			<act end_time="6:58:00" link="sfpt154778" type="Home" x="-122.280856" y="37.845970"/>
			<leg mode="PEV"><route type="links" start_link="sfpt154778" end_link="sfpt213728" trav_time="1" distance="1">sfpt154778 sfpt213728</route></leg>
			<act end_time="12:52:00" link="sfpt213728" type="Work" x="-122.278624" y="37.891232"/>
		</plan>
	</person>

<!-- ====================================================================== -->

</population>
