<?xml version="1.0" encoding="UTF-8"?>
<!DOCTYPE network SYSTEM "http://www.matsim.org/files/dtd/network_v1.dtd">
<network>

<!-- ====================================================================== -->

	<nodes>
		<node id="1037911907" x="547189.1704328001" y="4172197.139324328" />
		<node id="1211585346" x="547491.48111973" y="4178415.733134663" />
		<node id="1211585374" x="547507.2320596921" y="4178418.9083634955" />
		<node id="1387131172" x="579719.7685905574" y="4141765.4489010666" />
		<node id="1700578403" x="604126.1038747039" y="4130068.5497574634" />
		<node id="1722576177" x="583335.4340393543" y="4234894.371311508" />
		<node id="1722576180" x="583274.5969503201" y="4234893.312429563" />
		<node id="1768215831" x="627681.336785905" y="4095716.058783484" />
		<node id="1831279684" x="600316.6074155848" y="4134925.9959423197" />
		<node id="189787053" x="586413.2706401304" y="4141233.0804055627" />
		<node id="2146034347" x="564145.1635481155" y="4191787.430634307" />
		<node id="2270488244" x="547210.8119523455" y="4172387.289115587" />
		<node id="2375870842" x="546211.7267093541" y="4159971.631130548" />
		<node id="2375871058" x="546220.7793451267" y="4159955.3166160765" />
		<node id="247137755" x="579224.2160862616" y="4139307.702054145" />
		<node id="2510574550" x="604545.4861437252" y="4129542.3965786723" />
		<node id="258286618" x="546540.6033896543" y="4170262.0821453575" />
		<node id="258286619" x="546553.5566899163" y="4170412.5266266176" />
		<node id="26029776" x="579458.2474555321" y="4141781.9162120386" />
		<node id="262080636" x="546504.8200831371" y="4170669.302991851" />
		<node id="262294367" x="559096.8230818984" y="4197747.323002723" />
		<node id="262294368" x="558986.5573016778" y="4197745.562988669" />
		<node id="2697118213" x="578801.5056473147" y="4140215.512517193" />
		<node id="2697118215" x="578868.4660700423" y="4140184.500766395" />
		<node id="275775217" x="564482.9352441989" y="4190641.0781251513" />
		<node id="2826985851" x="560203.3662556247" y="4197207.377770015" />
		<node id="2860854524" x="590139.4254883634" y="4236535.123533894" />
		<node id="2861395307" x="627876.2717821234" y="4095211.675308126" />
		<node id="288077687" x="603571.177350699" y="4129154.0870030555" />
		<node id="288077689" x="603687.0943498262" y="4129134.549052696" />
		<node id="288085063" x="604189.8239998359" y="4128743.4635486896" />
		<node id="29892665" x="542949.3385767061" y="4196578.916943397" />
		<node id="312684660" x="563718.8328321957" y="4201432.8595311865" />
		<node id="313199896" x="604709.0834491099" y="4131865.4169931235" />
		<node id="313199908" x="604915.2073057939" y="4132042.554300822" />
		<node id="314131245" x="546218.738433148" y="4173106.2333050296" />
		<node id="318856166" x="542891.8775180783" y="4196350.537939071" />
		<node id="33102399" x="600456.335326475" y="4134813.427266637" />
		<node id="339943482" x="575597.2424722139" y="4148964.8003621344" />
		<node id="372463350" x="596855.5029408933" y="4121010.4114198666" />
		<node id="405090846" x="547955.8399849713" y="4236464.803553205" />
		<node id="407681454" x="564480.6525496294" y="4190659.545894978" />
		<node id="440007031" x="594584.493461352" y="4152490.029076523" />
		<node id="441518948" x="578941.5488824897" y="4173118.249333994" />
		<node id="441518949" x="578982.8062569344" y="4173156.3147598025" />
		<node id="523873631" x="575657.9487661502" y="4149034.0440522106" />
		<node id="53063654" x="561683.6060185527" y="4194646.431419222" />
		<node id="53065143" x="561609.6741759441" y="4194626.990521055" />
		<node id="53076617" x="594723.0879692584" y="4152522.4877990168" />
		<node id="53096846" x="583722.0008307826" y="4161372.3041406064" />
		<node id="53096850" x="583926.6356469529" y="4161307.131733917" />
		<node id="53115964" x="563451.3557243975" y="4191736.0346594634" />
		<node id="53116958" x="563343.8106168921" y="4191717.6504086163" />
		<node id="53121257" x="564149.2880275154" y="4191739.129276924" />
		<node id="55978224" x="544953.8609502687" y="4239204.516852663" />
		<node id="55978225" x="545025.8434419121" y="4239237.473823177" />
		<node id="56002192" x="544759.1231333531" y="4238300.215629614" />
		<node id="56043234" x="524410.9441896717" y="4255756.355018885" />
		<node id="56055252" x="543922.4509342177" y="4240345.906478369" />
		<node id="56080278" x="543992.416113538" y="4240176.559276008" />
		<node id="56090097" x="544750.745546224" y="4238347.561146715" />
		<node id="56107904" x="548031.1982969746" y="4236455.840983501" />
		<node id="56112546" x="545686.0348286625" y="4239770.33595958" />
		<node id="56122539" x="524227.14932333445" y="4255721.7115870705" />
		<node id="56132522" x="545677.0345751897" y="4239806.458854337" />
		<node id="56132524" x="545662.3865810998" y="4239867.250096844" />
		<node id="56132527" x="545630.8795442599" y="4240011.989155268" />
		<node id="57803426" x="559451.3504050979" y="4197276.6950067775" />
		<node id="57828662" x="559288.322697791" y="4197283.369576713" />
		<node id="57849483" x="563859.1853389181" y="4201361.230334007" />
		<node id="57860989" x="560264.8899030257" y="4197099.334791042" />
		<node id="62352362" x="585281.6753748372" y="4237804.553643503" />
		<node id="62382161" x="590138.6391403737" y="4236559.373958652" />
		<node id="62405021" x="586187.1785414522" y="4238148.184750115" />
		<node id="62405023" x="586153.6896364304" y="4238163.586182335" />
		<node id="62420075" x="585288.2676749915" y="4236781.114694475" />
		<node id="62436071" x="590950.0616405159" y="4231676.005388315" />
		<node id="62436073" x="590779.0965534899" y="4231676.196814491" />
		<node id="62437115" x="585288.4906169581" y="4236701.882044012" />
		<node id="62437135" x="585281.223105031" y="4237864.030712487" />
		<node id="62521941" x="581774.113072491" y="4231806.035567405" />
		<node id="62521943" x="581831.3644342769" y="4231822.926329796" />
		<node id="62530179" x="576567.6238189754" y="4232238.436209504" />
		<node id="62530182" x="576554.2943439138" y="4232194.810205819" />
		<node id="62540082" x="581512.5673996466" y="4232893.0268138675" />
		<node id="62540084" x="581646.2309457704" y="4232899.921587206" />
		<node id="65398815" x="545501.3922497131" y="4167238.992746983" />
		<node id="65418251" x="545568.9212755462" y="4167229.3234225577" />
		<node id="65431845" x="607979.7637048592" y="4130560.2520818734" />
		<node id="65468941" x="546514.1765950328" y="4170711.4725668817" />
		<node id="65468943" x="546475.9827363795" y="4170481.6450778195" />
		<node id="65468958" x="546466.7922754757" y="4170337.701396907" />
		<node id="65474288" x="603989.7253541542" y="4126369.6755077597" />
		<node id="65490592" x="608150.8673922664" y="4130601.4420349514" />
		<node id="65500751" x="604209.2905433029" y="4126371.702321067" />
		<node id="65502681" x="545736.7801094031" y="4172925.007518144" />
		<node id="65530293" x="604039.9727337951" y="4128933.1555639883" />
		<node id="65538889" x="597059.8194894447" y="4125326.2824424817" />
		<node id="65597976" x="597011.9963843258" y="4125465.004434444" />
		<node id="65635834" x="596874.7019285456" y="4121005.850543326" />
		<node id="671743591" x="579265.0834337231" y="4139285.6660612873" />
		<node id="678823323" x="586384.1069629543" y="4141248.6120283073" />
		<node id="808791875" x="574380.5025432081" y="4141899.488381492" />
		<node id="808791882" x="574436.0578208428" y="4141847.9690626254" />
		<node id="846478058" x="585833.7426978181" y="4163280.697040792" />
		<node id="846478163" x="585221.2690928301" y="4163939.2502022763" />
		<node id="846478178" x="585634.7460820797" y="4163495.9876192445" />
	</nodes>

<!-- ====================================================================== -->

	<links capperiod="01:00:00" effectivecellsize="7.5" effectivelanewidth="3.75">
		<link id="117606" from="53065143" to="53063654" length="76.44518214408794" freespeed="12.5" capacity="600.0" permlanes="1.0" oneway="1" modes="car" />
		<link id="126876" from="1211585374" to="1211585346" length="16.067799719539572" freespeed="16.666666666666668" capacity="2000.0" permlanes="2.0" oneway="1" modes="car" />
		<link id="134264" from="55978224" to="55978225" length="79.16843442079454" freespeed="12.5" capacity="600.0" permlanes="1.0" oneway="1" modes="car" />
		<link id="141857" from="288077687" to="288077689" length="117.55204035195985" freespeed="12.5" capacity="600.0" permlanes="1.0" oneway="1" modes="car" />
		<link id="141871" from="65530293" to="288085063" length="241.74048606324865" freespeed="12.5" capacity="600.0" permlanes="1.0" oneway="1" modes="car" />
		<link id="169972" from="262294368" to="262294367" length="110.27982561254949" freespeed="12.5" capacity="600.0" permlanes="1.0" oneway="1" modes="car" />
		<link id="175920" from="65502681" to="314131245" length="514.9044684787447" freespeed="22.22222222222222" capacity="3000.0" permlanes="2.0" oneway="1" modes="car" />
		<link id="182716" from="523873631" to="339943482" length="92.0866045570867" freespeed="22.22222222222222" capacity="6000.0" permlanes="3.0" oneway="1" modes="car" />
		<link id="189378" from="65635834" to="372463350" length="19.73328968241918" freespeed="12.5" capacity="600.0" permlanes="1.0" oneway="1" modes="car" />
		<link id="195819" from="2860854524" to="62382161" length="24.263170528290456" freespeed="12.5" capacity="600.0" permlanes="1.0" oneway="1" modes="car" />
		<link id="195961" from="62437115" to="62420075" length="79.23296411587025" freespeed="16.666666666666668" capacity="1000.0" permlanes="1.0" oneway="1" modes="car" />
		<link id="195991" from="62352362" to="62437135" length="59.478788512369675" freespeed="16.666666666666668" capacity="1000.0" permlanes="1.0" oneway="1" modes="car" />
		<link id="217620" from="1387131172" to="26029776" length="262.03907417706944" freespeed="12.5" capacity="600.0" permlanes="1.0" oneway="1" modes="car" />
		<link id="233738" from="312684660" to="57849483" length="157.57400810993326" freespeed="12.5" capacity="600.0" permlanes="1.0" oneway="1" modes="car" />
		<link id="239414" from="65538889" to="65597976" length="146.73391031796902" freespeed="16.666666666666668" capacity="1000.0" permlanes="1.0" oneway="1" modes="car" />
		<link id="258968" from="318856166" to="29892665" length="235.49680013932388" freespeed="33.333333333333336" capacity="8000.0" permlanes="4.0" oneway="1" modes="car" />
		<link id="26066" from="33102399" to="1831279684" length="179.43131228054045" freespeed="22.22222222222222" capacity="1500.0" permlanes="1.0" oneway="1" modes="car" />
		<link id="272390" from="62530179" to="62530182" length="45.616916849960724" freespeed="12.5" capacity="600.0" permlanes="1.0" oneway="1" modes="car" />
		<link id="27712" from="2270488244" to="1037911907" length="191.3773719226542" freespeed="22.22222222222222" capacity="3000.0" permlanes="2.0" oneway="1" modes="car" />
		<link id="278865" from="56122539" to="56043234" length="187.03133496767407" freespeed="12.5" capacity="600.0" permlanes="1.0" oneway="1" modes="car" />
		<link id="281412" from="62540084" to="62540082" length="133.84125470787234" freespeed="33.333333333333336" capacity="4000.0" permlanes="2.0" oneway="1" modes="car" />
		<link id="283687" from="62405023" to="62405021" length="36.86069551720467" freespeed="12.5" capacity="600.0" permlanes="1.0" oneway="1" modes="car" />
		<link id="287359" from="441518948" to="441518949" length="56.13508339763431" freespeed="12.5" capacity="600.0" permlanes="1.0" oneway="1" modes="car" />
		<link id="290972" from="846478163" to="846478178" length="606.172366703489" freespeed="22.22222222222222" capacity="3000.0" permlanes="2.0" oneway="1" modes="car" />
		<link id="290973" from="846478178" to="846478058" length="293.1717691826713" freespeed="22.22222222222222" capacity="3000.0" permlanes="2.0" oneway="1" modes="car" />
		<link id="292640" from="2861395307" to="1768215831" length="540.742399821785" freespeed="22.22222222222222" capacity="3000.0" permlanes="2.0" oneway="1" modes="car" />
		<link id="295583" from="440007031" to="53076617" length="142.34467425145806" freespeed="16.666666666666668" capacity="1000.0" permlanes="1.0" oneway="1" modes="car" />
		<link id="306728" from="189787053" to="678823323" length="33.041661149433445" freespeed="16.666666666666668" capacity="2000.0" permlanes="2.0" oneway="1" modes="car" />
		<link id="313357" from="53115964" to="53116958" length="109.1051365773371" freespeed="22.22222222222222" capacity="3000.0" permlanes="2.0" oneway="1" modes="car" />
		<link id="31723" from="405090846" to="56107904" length="75.88941193403042" freespeed="16.666666666666668" capacity="1000.0" permlanes="1.0" oneway="1" modes="car" />
		<link id="365923" from="2697118215" to="2697118213" length="73.79313585560597" freespeed="16.666666666666668" capacity="2000.0" permlanes="2.0" oneway="1" modes="car" />
		<link id="39812" from="62521941" to="62521943" length="59.691006697061745" freespeed="16.666666666666668" capacity="1000.0" permlanes="1.0" oneway="1" modes="car" />
		<link id="407248" from="258286619" to="258286618" length="151.00109247720945" freespeed="33.333333333333336" capacity="6000.0" permlanes="3.0" oneway="1" modes="car" />
		<link id="42608" from="275775217" to="407681454" length="18.60831042495863" freespeed="22.22222222222222" capacity="3000.0" permlanes="2.0" oneway="1" modes="car" />
		<link id="427463" from="57828662" to="57803426" length="163.1642829591359" freespeed="12.5" capacity="600.0" permlanes="1.0" oneway="1" modes="car" />
		<link id="440449" from="671743591" to="247137755" length="46.42978644962704" freespeed="22.22222222222222" capacity="4500.0" permlanes="3.0" oneway="1" modes="car" />
		<link id="442554" from="1700578403" to="2510574550" length="672.843707796564" freespeed="33.333333333333336" capacity="8000.0" permlanes="4.0" oneway="1" modes="car" />
		<link id="449912" from="313199896" to="313199908" length="271.78055499409396" freespeed="22.22222222222222" capacity="3000.0" permlanes="2.0" oneway="1" modes="car" />
		<link id="452744" from="62436071" to="62436073" length="170.96519419399877" freespeed="22.22222222222222" capacity="3000.0" permlanes="2.0" oneway="1" modes="car" />
		<link id="459059" from="65468943" to="65468958" length="144.23677702373195" freespeed="12.5" capacity="600.0" permlanes="1.0" oneway="1" modes="car" />
		<link id="480876" from="2826985851" to="57860989" length="124.33199304648954" freespeed="22.22222222222222" capacity="3000.0" permlanes="2.0" oneway="1" modes="car" />
		<link id="484187" from="53096850" to="53096846" length="214.76231183038567" freespeed="16.666666666666668" capacity="2000.0" permlanes="2.0" oneway="1" modes="car" />
		<link id="487478" from="808791882" to="808791875" length="75.7669392911446" freespeed="12.5" capacity="600.0" permlanes="1.0" oneway="1" modes="car" />
		<link id="512125" from="56132527" to="56132524" length="148.12862115104153" freespeed="22.22222222222222" capacity="3000.0" permlanes="2.0" oneway="1" modes="car" />
		<link id="512129" from="56132522" to="56112546" length="37.22724927027635" freespeed="22.22222222222222" capacity="3000.0" permlanes="2.0" oneway="1" modes="car" />
		<link id="553132" from="65431845" to="65490592" length="175.99171593833125" freespeed="22.22222222222222" capacity="4500.0" permlanes="3.0" oneway="1" modes="car" />
		<link id="564006" from="2375870842" to="2375871058" length="18.657802573681707" freespeed="12.5" capacity="600.0" permlanes="1.0" oneway="1" modes="car" />
		<link id="569075" from="65500751" to="65474288" length="219.57454373871428" freespeed="16.666666666666668" capacity="1000.0" permlanes="1.0" oneway="1" modes="car" />
		<link id="63793" from="1722576180" to="1722576177" length="60.846303364594355" freespeed="16.666666666666668" capacity="1000.0" permlanes="1.0" oneway="1" modes="car" />
		<link id="75022" from="56055252" to="56080278" length="183.23100519479524" freespeed="16.666666666666668" capacity="1000.0" permlanes="1.0" oneway="1" modes="car" />
		<link id="75066" from="56090097" to="56002192" length="48.08099370484249" freespeed="16.666666666666668" capacity="1000.0" permlanes="1.0" oneway="1" modes="car" />
		<link id="75977" from="65468941" to="262080636" length="43.195108208472604" freespeed="12.5" capacity="600.0" permlanes="1.0" oneway="1" modes="car" />
		<link id="86533" from="2146034347" to="53121257" length="48.47713332486199" freespeed="12.5" capacity="1200.0" permlanes="2.0" oneway="1" modes="car" />
		<link id="87246" from="65398815" to="65418251" length="68.21777748370562" freespeed="12.5" capacity="600.0" permlanes="1.0" oneway="1" modes="car" />
	</links>

<!-- ====================================================================== -->

</network>
